src/examples/case14_twoarea/two_area_02pulim_1_4/results/res_branch_2.csv
branch,from_bus,to_bus,X,B,G,Bfr,Bto,p_from,p_to,q_from,q_to,p_loss,q_loss,s_from,s_to,rate_a,ang_deg,angmin,angmax
7,4,5,0.07018333333333335,-13.750861129582134,2.615635185180549,0.0,0.0,-0.10858286710734488,0.10917354212496207,0.1679576462465643,-0.1648523622276088,0.0005906750176171843,0.0031052840189555175,0.20000002490484184,0.1977249696728605,0.2,-0.6322861986798146,-60.0001403060998,60.0001403060998
4,2,4,0.2938666666666667,-3.274849999726149,0.6475778135801491,0.028333333333333335,0.028333333333333335,0.09721299939182514,-0.09653491632617776,0.011958866847704266,-0.060690938069786114,0.0006780830656473724,-0.04873207122208185,0.0979458102576936,0.11402797917131022,0.2,1.6393971223768213,-60.0001403060998,60.0001403060998
2,1,5,0.37173333333333336,-2.634446441553089,0.3829065851070123,0.041,0.041,0.10356296999198357,-0.10265584417750369,0.03301348974649542,-0.10177759363383383,0.000907125814479881,-0.06876410388733842,0.10869765065907565,0.1445576041226809,0.2,2.170268773630963,-60.0001403060998,60.0001403060998
3,2,3,0.32995,-2.9705137433791546,0.423047252012082,0.0365,0.0365,0.19906186396592154,-0.19706346047033385,-0.019349013243286424,-0.03414677945173466,0.0019984034955876917,-0.05349579269502108,0.20000002499768826,0.20000002499866903,0.2,4.028591356978592,-60.0001403060998,60.0001403060998
5,2,5,0.28980000000000006,-3.32235273589815,0.6528916090731525,0.028833333333333336,0.028833333333333336,0.07088948283747412,-0.07019580646512057,0.05290342324994498,-0.10186554937259107,0.000693676372353555,-0.04896212612264609,0.08845389176586499,0.1237095040579682,0.2,1.0071109236970068,-60.0001403060998,60.0001403060998
6,3,4,0.28505,-3.324436966625986,0.7815138436541214,0.010666666666666668,0.010666666666666668,-0.12173652953112479,0.12298885413356606,0.03764882638864034,-0.051705103877862535,0.0012523246024412626,-0.014056277489222196,0.12742533794628289,0.13341542642478846,0.2,-2.3891942346017703,-60.0001403060998,60.0001403060998
1,1,2,0.09861666666666669,-9.763222778777191,1.918653954227162,0.044000000000000004,0.044000000000000004,0.19546137696775123,-0.19467701177959068,-0.033013499741575664,-0.04583526027196923,0.0007843651881605518,-0.07884876001354489,0.1982297683278583,0.20000002499907357,0.2,1.1631578499339565,-60.0001403060998,60.0001403060998
